/*--------------------------------*- C++ -*----------------------------------*\
| =========                 |                                                 |
| \\      /  F ield         | OpenFOAM: The Open Source CFD Toolbox           |
|  \\    /   O peration     | Version:  2112                                  |
|   \\  /    A nd           | Website:  www.openfoam.com                      |
|    \\/     M anipulation  |                                                 |
\*---------------------------------------------------------------------------*/
FoamFile
{
    version     2.0;
    format      binary;
    arch        "LSB;label=32;scalar=64";
    class       volVectorField;
    location    "0";
    object      cellMotionU0;
}
// * * * * * * * * * * * * * * * * * * * * * * * * * * * * * * * * * * * * * //

dimensions      [0 1 -1 0 0 0 0];

internalField   uniform (0 0 0);

boundaryField
{
    gv_inlet
    {
        type            fixedValue;
        value           uniform (0 0 0);
    }

    gv_outlet
    {
        type            fixedValue;
        value           uniform (0 0 0);
    }

    gv_hub
    {
        type            slip;
    }

    gv_shroud
    {
        type            slip;
    }

    gv_blade
    {
        type            cellMotion;
        value           uniform ( 0 0 0 );
    }

    ru_inlet
    {
        type            fixedValue;
        value           uniform (0 0 0);
    }

    ru_outlet
    {
        type            fixedValue;
        value           uniform (0 0 0);
    }

    ru_hub
    {
        type            cellMotion;
        value           uniform ( 0 0 0 );
    }

    ru_shroud
    {
        type            cellMotion;
        value           uniform ( 0 0 0 );
    }

    ru_blade
    {
        type            cellMotion;
        value           uniform ( 0 0 0 );
    }

    ru_shroudBlade
    {
        type            cellMotion;
        value           uniform ( 0 0 0 );
    }

    ".*per.*"
    {
        type            fixedValue;
        value           uniform (0 0 0);
    }    
}


// ************************************************************************* //
