/*--------------------------------*- C++ -*----------------------------------*\
| =========                 |                                                 |
| \\      /  F ield         | OpenFOAM: The Open Source CFD Toolbox           |
|  \\    /   O peration     | Version:  2112                                  |
|   \\  /    A nd           | Website:  www.openfoam.com                      |
|    \\/     M anipulation  |                                                 |
\*---------------------------------------------------------------------------*/
FoamFile
{
    version     2.0;
    format      binary;
    class       pointVectorField;
    arch        "LSB;label=32;scalar=64";
    location    "0";
    object      pointMotionU0;
}
// * * * * * * * * * * * * * * * * * * * * * * * * * * * * * * * * * * * * * //

dimensions      [0 1 -1 0 0 0 0];

internalField   uniform (0 0 0);

boundaryField
{
    gv_inlet
    {
        type            fixedValue;
        value           uniform (0 0 0);
    }

    gv_outlet
    {
        type            fixedValue;
        value           uniform (0 0 0);
    }

    gv_hub
    {
        type            slip;
    }

    gv_shroud
    {
        type            slip;
    }

    gv_blade
    {
        type            velocityRotatingBC;
        value           uniform ( 0 0 0 );
        axis            ( 0 0 1 );
        origin          (0.3349 0 0);
        printAngle      true;
        startTime       0;
        omega           -1; // deg/s
    }

    ru_inlet
    {
        type            fixedValue;
        value           uniform (0 0 0);
    }

    ru_outlet
    {
        type            fixedValue;
        value           uniform (0 0 0);
    }

    ru_hub
    {
        type            rotatingSlip;
        axis            (0 0 1); // Same as turbine rotation
        origin          (0 0 0); // Same as turbine rotation
        omega           87.859874545394547; // Same as turbine rotation (rad/s)
    }

    ru_shroud
    {
        type            rotatingSlip;
        axis            (0 0 1);
        origin          (0 0 0);
        omega           87.859874545394547;
    }

    ru_blade
    {
        type            velocityRotatingBC;
        value           uniform ( 0 0 0 );
        axis            ( 1 0 0 );
        origin          (0 0 0);
        printAngle      true;
        startTime       0;
        omega           1; //deg/s
    }

    ru_shroudBlade
    {
        type            velocityRotatingBC;
        value           uniform ( 0 0 0 );
        axis            ( 1 0 0 );
        origin          (0 0 0);
        startTime       0;
        omega           1; //deg/s
    }

    ".*per.*"
    {
        type            fixedValue;
        value           uniform (0 0 0);
    }
}

// ************************************************************************* //
