/*--------------------------------*- C++ -*----------------------------------*\
| =========                 |                                                 |
| \\      /  F ield         | OpenFOAM: The Open Source CFD Toolbox           |
|  \\    /   O peration     | Version:  v1706                                 |
|   \\  /    A nd           | Web:      www.OpenFOAM.com                      |
|    \\/     M anipulation  |                                                 |
\*---------------------------------------------------------------------------*/
FoamFile
{
    version     2.0;
    format      binary;
    class       pointVectorField;
    arch        "LSB;label=32;scalar=64";
    location    "5";
    object      pointDisplacement;
}
// * * * * * * * * * * * * * * * * * * * * * * * * * * * * * * * * * * * * * //

dimensions      [0 1 0 0 0 0 0];

internalField   uniform (0 0 0);

boundaryField
{
    left
    {
        name    bumpLeftPointDisplacement;
        type    codedFixedValue;
        #include "codedBC"
        value   $internalField;
    }

    // left
    // {
    //     type            uniformFixedValue;
    //     uniformValue    table
    //     (
    //         (0   (0 0 0))
    //         (10  (1 0 0))
    //     );
    // }

    right
    {
        type            fixedValue;
        value           uniform (0 0 0);
    }

    top
    {
        type            fixedNormalSlip;
        n               (0 1 0);
    }

    bottom
    {
        type            slip;
        value           uniform (0 0 0);
    }

    frontAndBack
    {
        type            empty;
    }
}

// ************************************************************************* //
